29

Hg  3.70484 3.8955 0
Hg  3.70484 3.8955 2.78
Hg  3.70484 3.8955 5.56
Hg  3.70484 3.8955 8.34
Hg  5.99456 4.63947 1.39
Hg  5.99456 4.63947 4.17
Hg  5.99456 4.63947 6.95
Hg  3.70484 6.30305 1.39
Hg  3.70484 6.30305 4.17
Hg  3.70484 6.30305 6.95
Hg  1.41512 4.63947 1.39
Hg  1.41512 4.63947 4.17
Hg  1.41512 4.63947 6.95
Hg  2.28972 1.94775 1.39
Hg  2.28972 1.94775 4.17
Hg  2.28972 1.94775 6.95
Hg  5.11996 1.94775 1.39
Hg  5.11996 1.94775 4.17
Hg  5.11996 1.94775 6.95
Hg  5.99456 7.04702 2.78
Hg  5.99456 7.04702 5.56
Hg  1.41512 7.04702 2.78
Hg  1.41512 7.04702 5.56
Hg  0 2.69172 2.78
Hg  0 2.69172 5.56
Hg  3.70484 0 2.78
Hg  3.70484 0 5.56
Hg  7.40968 2.69172 2.78
Hg  7.40968 2.69172 5.56
