176

Hg  10.574 9.73875 0
Hg  10.574 9.73875 2.78
Hg  10.574 9.73875 5.56
Hg  10.574 9.73875 8.34
Hg  10.574 9.73875 11.12
Hg  10.574 9.73875 13.9
Hg  12.8637 10.4827 1.39
Hg  12.8637 10.4827 4.17
Hg  12.8637 10.4827 6.95
Hg  12.8637 10.4827 9.73
Hg  12.8637 10.4827 12.51
Hg  10.574 12.1463 1.39
Hg  10.574 12.1463 4.17
Hg  10.574 12.1463 6.95
Hg  10.574 12.1463 9.73
Hg  10.574 12.1463 12.51
Hg  8.28427 10.4827 1.39
Hg  8.28427 10.4827 4.17
Hg  8.28427 10.4827 6.95
Hg  8.28427 10.4827 9.73
Hg  8.28427 10.4827 12.51
Hg  9.15887 7.791 1.39
Hg  9.15887 7.791 4.17
Hg  9.15887 7.791 6.95
Hg  9.15887 7.791 9.73
Hg  9.15887 7.791 12.51
Hg  11.9891 7.791 1.39
Hg  11.9891 7.791 4.17
Hg  11.9891 7.791 6.95
Hg  11.9891 7.791 9.73
Hg  11.9891 7.791 12.51
Hg  15.1534 11.2267 2.78
Hg  15.1534 11.2267 5.56
Hg  15.1534 11.2267 8.34
Hg  15.1534 11.2267 11.12
Hg  12.8637 12.8903 2.78
Hg  12.8637 12.8903 5.56
Hg  12.8637 12.8903 8.34
Hg  12.8637 12.8903 11.12
Hg  10.574 14.5538 2.78
Hg  10.574 14.5538 5.56
Hg  10.574 14.5538 8.34
Hg  10.574 14.5538 11.12
Hg  8.28427 12.8903 2.78
Hg  8.28427 12.8903 5.56
Hg  8.28427 12.8903 8.34
Hg  8.28427 12.8903 11.12
Hg  5.99456 11.2267 2.78
Hg  5.99456 11.2267 5.56
Hg  5.99456 11.2267 8.34
Hg  5.99456 11.2267 11.12
Hg  6.86915 8.53497 2.78
Hg  6.86915 8.53497 5.56
Hg  6.86915 8.53497 8.34
Hg  6.86915 8.53497 11.12
Hg  7.74374 5.84325 2.78
Hg  7.74374 5.84325 5.56
Hg  7.74374 5.84325 8.34
Hg  7.74374 5.84325 11.12
Hg  10.574 5.84325 2.78
Hg  10.574 5.84325 5.56
Hg  10.574 5.84325 8.34
Hg  10.574 5.84325 11.12
Hg  13.4042 5.84325 2.78
Hg  13.4042 5.84325 5.56
Hg  13.4042 5.84325 8.34
Hg  13.4042 5.84325 11.12
Hg  14.2788 8.53497 2.78
Hg  14.2788 8.53497 5.56
Hg  14.2788 8.53497 8.34
Hg  14.2788 8.53497 11.12
Hg  17.4431 11.9707 4.17
Hg  17.4431 11.9707 6.95
Hg  17.4431 11.9707 9.73
Hg  15.1534 13.6342 4.17
Hg  15.1534 13.6342 6.95
Hg  15.1534 13.6342 9.73
Hg  12.8637 15.2978 4.17
Hg  12.8637 15.2978 6.95
Hg  12.8637 15.2978 9.73
Hg  10.574 16.9614 4.17
Hg  10.574 16.9614 6.95
Hg  10.574 16.9614 9.73
Hg  8.28427 15.2978 4.17
Hg  8.28427 15.2978 6.95
Hg  8.28427 15.2978 9.73
Hg  5.99456 13.6342 4.17
Hg  5.99456 13.6342 6.95
Hg  5.99456 13.6342 9.73
Hg  3.70484 11.9707 4.17
Hg  3.70484 11.9707 6.95
Hg  3.70484 11.9707 9.73
Hg  4.57943 9.27895 4.17
Hg  4.57943 9.27895 6.95
Hg  4.57943 9.27895 9.73
Hg  5.45403 6.58722 4.17
Hg  5.45403 6.58722 6.95
Hg  5.45403 6.58722 9.73
Hg  6.32862 3.8955 4.17
Hg  6.32862 3.8955 6.95
Hg  6.32862 3.8955 9.73
Hg  9.15887 3.8955 4.17
Hg  9.15887 3.8955 6.95
Hg  9.15887 3.8955 9.73
Hg  11.9891 3.8955 4.17
Hg  11.9891 3.8955 6.95
Hg  11.9891 3.8955 9.73
Hg  14.8194 3.8955 4.17
Hg  14.8194 3.8955 6.95
Hg  14.8194 3.8955 9.73
Hg  15.694 6.58722 4.17
Hg  15.694 6.58722 6.95
Hg  15.694 6.58722 9.73
Hg  16.5685 9.27895 4.17
Hg  16.5685 9.27895 6.95
Hg  16.5685 9.27895 9.73
Hg  19.7329 12.7146 5.56
Hg  19.7329 12.7146 8.34
Hg  17.4431 14.3782 5.56
Hg  17.4431 14.3782 8.34
Hg  15.1534 16.0418 5.56
Hg  15.1534 16.0418 8.34
Hg  12.8637 17.7054 5.56
Hg  12.8637 17.7054 8.34
Hg  10.574 19.3689 5.56
Hg  10.574 19.3689 8.34
Hg  8.28427 17.7054 5.56
Hg  8.28427 17.7054 8.34
Hg  5.99456 16.0418 5.56
Hg  5.99456 16.0418 8.34
Hg  3.70484 14.3782 5.56
Hg  3.70484 14.3782 8.34
Hg  1.41512 12.7146 5.56
Hg  1.41512 12.7146 8.34
Hg  2.28972 10.0229 5.56
Hg  2.28972 10.0229 8.34
Hg  3.16431 7.3312 5.56
Hg  3.16431 7.3312 8.34
Hg  4.0389 4.63947 5.56
Hg  4.0389 4.63947 8.34
Hg  4.9135 1.94775 5.56
Hg  4.9135 1.94775 8.34
Hg  7.74374 1.94775 5.56
Hg  7.74374 1.94775 8.34
Hg  10.574 1.94775 5.56
Hg  10.574 1.94775 8.34
Hg  13.4042 1.94775 5.56
Hg  13.4042 1.94775 8.34
Hg  16.2345 1.94775 5.56
Hg  16.2345 1.94775 8.34
Hg  17.1091 4.63947 5.56
Hg  17.1091 4.63947 8.34
Hg  17.9837 7.3312 5.56
Hg  17.9837 7.3312 8.34
Hg  18.8583 10.0229 5.56
Hg  18.8583 10.0229 8.34
Hg  19.7329 15.1222 6.95
Hg  17.4431 16.7858 6.95
Hg  15.1534 18.4493 6.95
Hg  12.8637 20.1129 6.95
Hg  8.28427 20.1129 6.95
Hg  5.99456 18.4493 6.95
Hg  3.70484 16.7858 6.95
Hg  1.41512 15.1222 6.95
Hg  0 10.7669 6.95
Hg  0.874594 8.07517 6.95
Hg  1.74919 5.38345 6.95
Hg  2.62378 2.69172 6.95
Hg  6.32862 1.77636e-15 6.95
Hg  9.15887 0 6.95
Hg  11.9891 0 6.95
Hg  14.8194 0 6.95
Hg  18.5242 2.69172 6.95
Hg  19.3988 5.38345 6.95
Hg  20.2734 8.07517 6.95
Hg  21.148 10.7669 6.95
