93

Hg  1.96576 5.89727 7.86303
Hg  1.96576 7.86303 5.89727
Hg  0 7.86303 7.86303
Hg  1.96576 7.86303 9.82878
Hg  1.96576 9.82878 7.86303
Hg  5.89727 1.96576 7.86303
Hg  3.93151 3.93151 3.93151
Hg  3.93151 5.89727 5.89727
Hg  5.89727 3.93151 5.89727
Hg  5.89727 5.89727 3.93151
Hg  3.93151 3.93151 7.86303
Hg  3.93151 5.89727 9.82878
Hg  5.89727 3.93151 9.82878
Hg  5.89727 5.89727 7.86303
Hg  3.93151 3.93151 11.7945
Hg  5.89727 5.89727 11.7945
Hg  5.89727 7.86303 1.96576
Hg  3.93151 7.86303 3.93151
Hg  3.93151 9.82878 5.89727
Hg  5.89727 7.86303 5.89727
Hg  5.89727 9.82878 3.93151
Hg  3.93151 7.86303 7.86303
Hg  3.93151 9.82878 9.82878
Hg  5.89727 7.86303 9.82878
Hg  5.89727 9.82878 7.86303
Hg  3.93151 7.86303 11.7945
Hg  5.89727 7.86303 13.7603
Hg  5.89727 9.82878 11.7945
Hg  3.93151 11.7945 3.93151
Hg  5.89727 11.7945 5.89727
Hg  3.93151 11.7945 7.86303
Hg  5.89727 11.7945 9.82878
Hg  5.89727 13.7603 7.86303
Hg  3.93151 11.7945 11.7945
Hg  7.86303 1.96576 5.89727
Hg  7.86303 0 7.86303
Hg  7.86303 1.96576 9.82878
Hg  9.82878 1.96576 7.86303
Hg  7.86303 5.89727 1.96576
Hg  7.86303 3.93151 3.93151
Hg  7.86303 5.89727 5.89727
Hg  9.82878 3.93151 5.89727
Hg  9.82878 5.89727 3.93151
Hg  7.86303 3.93151 7.86303
Hg  7.86303 5.89727 9.82878
Hg  9.82878 3.93151 9.82878
Hg  9.82878 5.89727 7.86303
Hg  7.86303 3.93151 11.7945
Hg  7.86303 5.89727 13.7603
Hg  9.82878 5.89727 11.7945
Hg  7.86303 7.86303 0
Hg  7.86303 9.82878 1.96576
Hg  9.82878 7.86303 1.96576
Hg  7.86303 7.86303 3.93151
Hg  7.86303 9.82878 5.89727
Hg  9.82878 7.86303 5.89727
Hg  9.82878 9.82878 3.93151
Hg  7.86303 7.86303 7.86303
Hg  7.86303 9.82878 9.82878
Hg  9.82878 7.86303 9.82878
Hg  9.82878 9.82878 7.86303
Hg  7.86303 7.86303 11.7945
Hg  7.86303 9.82878 13.7603
Hg  9.82878 7.86303 13.7603
Hg  9.82878 9.82878 11.7945
Hg  7.86303 7.86303 15.7261
Hg  7.86303 11.7945 3.93151
Hg  7.86303 13.7603 5.89727
Hg  9.82878 11.7945 5.89727
Hg  7.86303 11.7945 7.86303
Hg  7.86303 13.7603 9.82878
Hg  9.82878 11.7945 9.82878
Hg  9.82878 13.7603 7.86303
Hg  7.86303 11.7945 11.7945
Hg  7.86303 15.7261 7.86303
Hg  11.7945 3.93151 3.93151
Hg  11.7945 5.89727 5.89727
Hg  11.7945 3.93151 7.86303
Hg  11.7945 5.89727 9.82878
Hg  13.7603 5.89727 7.86303
Hg  11.7945 3.93151 11.7945
Hg  11.7945 7.86303 3.93151
Hg  11.7945 9.82878 5.89727
Hg  13.7603 7.86303 5.89727
Hg  11.7945 7.86303 7.86303
Hg  11.7945 9.82878 9.82878
Hg  13.7603 7.86303 9.82878
Hg  13.7603 9.82878 7.86303
Hg  11.7945 7.86303 11.7945
Hg  11.7945 11.7945 3.93151
Hg  11.7945 11.7945 7.86303
Hg  11.7945 11.7945 11.7945
Hg  15.7261 7.86303 7.86303
