62

Sc  3.83811 4.03562 0
Sc  3.83811 4.03562 2.88
Sc  3.83811 4.03562 5.76
Sc  3.83811 4.03562 8.64
Sc  3.83811 4.03562 11.52
Sc  3.83811 4.03562 14.4
Sc  3.83811 4.03562 17.28
Sc  6.21019 4.80636 1.44
Sc  6.21019 4.80636 4.32
Sc  6.21019 4.80636 7.2
Sc  6.21019 4.80636 10.08
Sc  6.21019 4.80636 12.96
Sc  6.21019 4.80636 15.84
Sc  3.83811 6.52978 1.44
Sc  3.83811 6.52978 4.32
Sc  3.83811 6.52978 7.2
Sc  3.83811 6.52978 10.08
Sc  3.83811 6.52978 12.96
Sc  3.83811 6.52978 15.84
Sc  1.46603 4.80636 1.44
Sc  1.46603 4.80636 4.32
Sc  1.46603 4.80636 7.2
Sc  1.46603 4.80636 10.08
Sc  1.46603 4.80636 12.96
Sc  1.46603 4.80636 15.84
Sc  2.37208 2.01781 1.44
Sc  2.37208 2.01781 4.32
Sc  2.37208 2.01781 7.2
Sc  2.37208 2.01781 10.08
Sc  2.37208 2.01781 12.96
Sc  2.37208 2.01781 15.84
Sc  5.30413 2.01781 1.44
Sc  5.30413 2.01781 4.32
Sc  5.30413 2.01781 7.2
Sc  5.30413 2.01781 10.08
Sc  5.30413 2.01781 12.96
Sc  5.30413 2.01781 15.84
Sc  6.21019 7.30051 2.88
Sc  6.21019 7.30051 5.76
Sc  6.21019 7.30051 8.64
Sc  6.21019 7.30051 11.52
Sc  6.21019 7.30051 14.4
Sc  1.46603 7.30051 2.88
Sc  1.46603 7.30051 5.76
Sc  1.46603 7.30051 8.64
Sc  1.46603 7.30051 11.52
Sc  1.46603 7.30051 14.4
Sc  0 2.78855 2.88
Sc  0 2.78855 5.76
Sc  0 2.78855 8.64
Sc  0 2.78855 11.52
Sc  0 2.78855 14.4
Sc  3.83811 0 2.88
Sc  3.83811 0 5.76
Sc  3.83811 0 8.64
Sc  3.83811 0 11.52
Sc  3.83811 0 14.4
Sc  7.67621 2.78855 2.88
Sc  7.67621 2.78855 5.76
Sc  7.67621 2.78855 8.64
Sc  7.67621 2.78855 11.52
Sc  7.67621 2.78855 14.4
