32

Sc  0 0 0
Sc  6.41369e-16 1.66277 2.35152
Sc  -1.44 2.49415 0
Sc  -1.44 4.15692 2.35152
Sc  -2.88 4.98831 0
Sc  -2.88 6.65108 2.35152
Sc  -4.32 7.48246 0
Sc  -4.32 9.14523 2.35152
Sc  2.87978e-16 4.98793e-16 4.70304
Sc  9.29347e-16 1.66277 7.05456
Sc  -1.44 2.49415 4.70304
Sc  -1.44 4.15692 7.05456
Sc  -2.88 4.98831 4.70304
Sc  -2.88 6.65108 7.05456
Sc  -4.32 7.48246 4.70304
Sc  -4.32 9.14523 7.05456
Sc  5.75956e-16 9.97586e-16 9.40608
Sc  1.21733e-15 1.66277 11.7576
Sc  -1.44 2.49415 9.40608
Sc  -1.44 4.15692 11.7576
Sc  -2.88 4.98831 9.40608
Sc  -2.88 6.65108 11.7576
Sc  -4.32 7.48246 9.40608
Sc  -4.32 9.14523 11.7576
Sc  8.63934e-16 1.49638e-15 14.1091
Sc  1.5053e-15 1.66277 16.4606
Sc  -1.44 2.49415 14.1091
Sc  -1.44 4.15692 16.4606
Sc  -2.88 4.98831 14.1091
Sc  -2.88 6.65108 16.4606
Sc  -4.32 7.48246 14.1091
Sc  -4.32 9.14523 16.4606
