18

Sc  3.83811 4.03562 0
Sc  3.83811 4.03562 2.88
Sc  3.83811 4.03562 5.76
Sc  6.21019 4.80636 1.44
Sc  6.21019 4.80636 4.32
Sc  3.83811 6.52978 1.44
Sc  3.83811 6.52978 4.32
Sc  1.46603 4.80636 1.44
Sc  1.46603 4.80636 4.32
Sc  2.37208 2.01781 1.44
Sc  2.37208 2.01781 4.32
Sc  5.30413 2.01781 1.44
Sc  5.30413 2.01781 4.32
Sc  6.21019 7.30051 2.88
Sc  1.46603 7.30051 2.88
Sc  0 2.78855 2.88
Sc  3.83811 0 2.88
Sc  7.67621 2.78855 2.88
